@<TRIPOS>MOLECULE
pni
287 286 3 0 0
SMALL
USER_CHARGES

@<TRIPOS>ATOM
      1 H4          -5.4804    3.9778   -0.6441 H_      444 RES         0.03438
      2 C1          -5.6025    3.0677   -0.0479 C_3     888 RES         0.20555
      3 C2          -4.3604    2.2011   -0.1552 C_3     888 RES        -0.05332
      4 H3          -6.4973    2.5461   -0.4020 H_      888 RES         0.11105
      5 H5          -5.7754    3.3674    0.9909 H_      888 RES         0.07747
      6 C6          -4.5949    0.7652    0.2801 C_2     888 RES         0.23416
      7 H8          -4.0191    2.1903   -1.1968 H_      888 RES         0.09374
      8 O9          -5.6305    0.3719    0.8001 O_2     888 RES        -0.28952
      9 N10         -3.5045   -0.0408    0.0181 N_2     888 RES        -0.63939
     10 C11         -3.4391   -1.4511    0.3876 C_3     888 RES        -0.03267
     11 H12         -2.6345    0.4244   -0.2075 H_      888 RES         0.24993
     12 C13         -4.5363   -2.2796   -0.2829 C_3     888 RES        -0.13182
     13 H14         -5.5118   -2.0838    0.1736 H_      888 RES         0.12220
     14 H15         -4.3431   -3.3525   -0.1772 H_      888 RES         0.03100
     15 H16         -4.6170   -2.0476   -1.3503 H_      888 RES         0.11849
     16 C17         -2.0663   -2.0100    0.0135 C_3     888 RES        -0.19547
     17 H18         -3.5627   -1.5096    1.4755 H_      888 RES         0.18067
     18 H19         -1.9796   -3.0658    0.2901 H_      888 RES         0.05120
     19 H20         -1.2701   -1.4608    0.5279 H_      888 RES         0.07281
     20 H21         -1.8840   -1.9219   -1.0638 H_      888 RES         0.09493
     21 C1          -4.4825    3.0677   -0.0479 C_3     888 RES        -0.15019
     22 C2          -3.2405    2.2011   -0.1552 C_3     888 RES        -0.02595
     23 H3          -5.3774    2.5461   -0.4020 H_      888 RES         0.11105
     24 H5          -4.6554    3.3674    0.9909 H_      888 RES         0.07747
     25 C6          -3.4750    0.7652    0.2801 C_2     888 RES         0.23416
     26 H8          -2.8992    2.1903   -1.1968 H_      888 RES         0.09374
     27 O9          -4.5106    0.3719    0.8001 O_2     888 RES        -0.28952
     28 N10         -2.3845   -0.0408    0.0181 N_2     888 RES        -0.63939
     29 C11         -2.3191   -1.4511    0.3876 C_3     888 RES        -0.03267
     30 H12         -1.5146    0.4244   -0.2075 H_      888 RES         0.24993
     31 C13         -3.4164   -2.2796   -0.2829 C_3     888 RES        -0.13182
     32 H14         -4.3918   -2.0838    0.1736 H_      888 RES         0.12220
     33 H15         -3.2231   -3.3525   -0.1772 H_      888 RES         0.03100
     34 H16         -3.4970   -2.0476   -1.3503 H_      888 RES         0.11849
     35 C17         -0.9464   -2.0100    0.0135 C_3     888 RES        -0.19547
     36 H18         -2.4427   -1.5096    1.4755 H_      888 RES         0.18067
     37 H19         -0.8597   -3.0658    0.2901 H_      888 RES         0.05120
     38 H20         -0.1501   -1.4608    0.5279 H_      888 RES         0.07281
     39 H21         -0.7641   -1.9219   -1.0638 H_      888 RES         0.09493
     40 C1          -3.3626    3.0677   -0.0479 C_3     888 RES        -0.15019
     41 C2          -2.1205    2.2011   -0.1552 C_3     888 RES        -0.02595
     42 H3          -4.2574    2.5461   -0.4020 H_      888 RES         0.11105
     43 H5          -3.5355    3.3674    0.9909 H_      888 RES         0.07747
     44 C6          -2.3550    0.7652    0.2801 C_2     888 RES         0.23416
     45 H8          -1.7792    2.1903   -1.1968 H_      888 RES         0.09374
     46 O9          -3.3906    0.3719    0.8001 O_2     888 RES        -0.28952
     47 N10         -1.2646   -0.0408    0.0181 N_2     888 RES        -0.63939
     48 C11         -1.1992   -1.4511    0.3876 C_3     888 RES        -0.03267
     49 H12         -0.3946    0.4244   -0.2075 H_      888 RES         0.24993
     50 C13         -2.2964   -2.2796   -0.2829 C_3     888 RES        -0.13182
     51 H14         -3.2719   -2.0838    0.1736 H_      888 RES         0.12220
     52 H15         -2.1032   -3.3525   -0.1772 H_      888 RES         0.03100
     53 H16         -2.3770   -2.0476   -1.3503 H_      888 RES         0.11849
     54 C17          0.1736   -2.0100    0.0135 C_3     888 RES        -0.19547
     55 H18         -1.3228   -1.5096    1.4755 H_      888 RES         0.18067
     56 H19          0.2603   -3.0658    0.2901 H_      888 RES         0.05120
     57 H20          0.9698   -1.4608    0.5279 H_      888 RES         0.07281
     58 H21          0.3559   -1.9219   -1.0638 H_      888 RES         0.09493
     59 C1          -2.2426    3.0677   -0.0479 C_3     888 RES        -0.15019
     60 C2          -1.0006    2.2011   -0.1552 C_3     888 RES        -0.02595
     61 H3          -3.1375    2.5461   -0.4020 H_      888 RES         0.11105
     62 H5          -2.4155    3.3674    0.9909 H_      888 RES         0.07747
     63 C6          -1.2351    0.7652    0.2801 C_2     888 RES         0.23416
     64 H8          -0.6593    2.1903   -1.1968 H_      888 RES         0.09374
     65 O9          -2.2706    0.3719    0.8001 O_2     888 RES        -0.28952
     66 N10         -0.1446   -0.0408    0.0181 N_2     888 RES        -0.63939
     67 C11         -0.0792   -1.4511    0.3876 C_3     888 RES        -0.03267
     68 H12          0.7253    0.4244   -0.2075 H_      888 RES         0.24993
     69 C13         -1.1765   -2.2796   -0.2829 C_3     888 RES        -0.13182
     70 H14         -2.1519   -2.0838    0.1736 H_      888 RES         0.12220
     71 H15         -0.9832   -3.3525   -0.1772 H_      888 RES         0.03100
     72 H16         -1.2571   -2.0476   -1.3503 H_      888 RES         0.11849
     73 C17          1.2935   -2.0100    0.0135 C_3     888 RES        -0.19547
     74 H18         -0.2028   -1.5096    1.4755 H_      888 RES         0.18067
     75 H19          1.3802   -3.0658    0.2901 H_      888 RES         0.05120
     76 H20          2.0898   -1.4608    0.5279 H_      888 RES         0.07281
     77 H21          1.4758   -1.9219   -1.0638 H_      888 RES         0.09493
     78 C1          -1.1227    3.0677   -0.0479 C_3     888 RES        -0.15019
     79 C2           0.1194    2.2011   -0.1552 C_3     888 RES        -0.02595
     80 H3          -2.0175    2.5461   -0.4020 H_      888 RES         0.11105
     81 H5          -1.2955    3.3674    0.9909 H_      888 RES         0.07747
     82 C6          -0.1151    0.7652    0.2801 C_2     888 RES         0.23416
     83 H8           0.4607    2.1903   -1.1968 H_      888 RES         0.09374
     84 O9          -1.1507    0.3719    0.8001 O_2     888 RES        -0.28952
     85 N10          0.9753   -0.0408    0.0181 N_2     888 RES        -0.63939
     86 C11          1.0408   -1.4511    0.3876 C_3     888 RES        -0.03267
     87 H12          1.8453    0.4244   -0.2075 H_      888 RES         0.24993
     88 C13         -0.0565   -2.2796   -0.2829 C_3     888 RES        -0.13182
     89 H14         -1.0320   -2.0838    0.1736 H_      888 RES         0.12220
     90 H15          0.1368   -3.3525   -0.1772 H_      888 RES         0.03100
     91 H16         -0.1371   -2.0476   -1.3503 H_      888 RES         0.11849
     92 C17          2.4135   -2.0100    0.0135 C_3     888 RES        -0.19547
     93 H18          0.9171   -1.5096    1.4755 H_      888 RES         0.18067
     94 H19          2.5002   -3.0658    0.2901 H_      888 RES         0.05120
     95 H20          3.2097   -1.4608    0.5279 H_      888 RES         0.07281
     96 H21          2.5958   -1.9219   -1.0638 H_      888 RES         0.09493
     97 C1          -0.0027    3.0677   -0.0479 C_3     888 RES        -0.15019
     98 C2           1.2394    2.2011   -0.1552 C_3     888 RES        -0.02595
     99 H3          -0.8975    2.5461   -0.4020 H_      888 RES         0.11105
    100 H5          -0.1756    3.3674    0.9909 H_      888 RES         0.07747
    101 C6           1.0048    0.7652    0.2801 C_2     888 RES         0.23416
    102 H8           1.5807    2.1903   -1.1968 H_      888 RES         0.09374
    103 O9          -0.0307    0.3719    0.8001 O_2     888 RES        -0.28952
    104 N10          2.0953   -0.0408    0.0181 N_2     888 RES        -0.63939
    105 C11          2.1607   -1.4511    0.3876 C_3     888 RES        -0.03267
    106 H12          2.9652    0.4244   -0.2075 H_      888 RES         0.24993
    107 C13          1.0634   -2.2796   -0.2829 C_3     888 RES        -0.13182
    108 H14          0.0880   -2.0838    0.1736 H_      888 RES         0.12220
    109 H15          1.2567   -3.3525   -0.1772 H_      888 RES         0.03100
    110 H16          0.9828   -2.0476   -1.3503 H_      888 RES         0.11849
    111 C17          3.5335   -2.0100    0.0135 C_3     888 RES        -0.19547
    112 H18          2.0371   -1.5096    1.4755 H_      888 RES         0.18067
    113 H19          3.6201   -3.0658    0.2901 H_      888 RES         0.05120
    114 H20          4.3297   -1.4608    0.5279 H_      888 RES         0.07281
    115 H21          3.7158   -1.9219   -1.0638 H_      888 RES         0.09493
    116 C1           1.1172    3.0677   -0.0479 C_3     888 RES        -0.15019
    117 C2           2.3593    2.2011   -0.1552 C_3     888 RES        -0.02595
    118 H3           0.2224    2.5461   -0.4020 H_      888 RES         0.11105
    119 H5           0.9444    3.3674    0.9909 H_      888 RES         0.07747
    120 C6           2.1248    0.7652    0.2801 C_2     888 RES         0.23416
    121 H8           2.7006    2.1903   -1.1968 H_      888 RES         0.09374
    122 O9           1.0892    0.3719    0.8001 O_2     888 RES        -0.28952
    123 N10          3.2153   -0.0408    0.0181 N_2     888 RES        -0.63939
    124 C11          3.2807   -1.4511    0.3876 C_3     888 RES        -0.03267
    125 H12          4.0852    0.4244   -0.2075 H_      888 RES         0.24993
    126 C13          2.1834   -2.2796   -0.2829 C_3     888 RES        -0.13182
    127 H14          1.2080   -2.0838    0.1736 H_      888 RES         0.12220
    128 H15          2.3767   -3.3525   -0.1772 H_      888 RES         0.03100
    129 H16          2.1028   -2.0476   -1.3503 H_      888 RES         0.11849
    130 C17          4.6534   -2.0100    0.0135 C_3     888 RES        -0.19547
    131 H18          3.1571   -1.5096    1.4755 H_      888 RES         0.18067
    132 H19          4.7401   -3.0658    0.2901 H_      888 RES         0.05120
    133 H20          5.4497   -1.4608    0.5279 H_      888 RES         0.07281
    134 H21          4.8357   -1.9219   -1.0638 H_      888 RES         0.09493
    135 C1           2.2372    3.0677   -0.0479 C_3     888 RES        -0.15019
    136 C2           3.4793    2.2011   -0.1552 C_3     888 RES        -0.02595
    137 H3           1.3424    2.5461   -0.4020 H_      888 RES         0.11105
    138 H5           2.0643    3.3674    0.9909 H_      888 RES         0.07747
    139 C6           3.2448    0.7652    0.2801 C_2     888 RES         0.23416
    140 H8           3.8206    2.1903   -1.1968 H_      888 RES         0.09374
    141 O9           2.2092    0.3719    0.8001 O_2     888 RES        -0.28952
    142 N10          4.3352   -0.0408    0.0181 N_2     888 RES        -0.63939
    143 C11          4.4006   -1.4511    0.3876 C_3     888 RES        -0.03267
    144 H12          5.2052    0.4244   -0.2075 H_      888 RES         0.24993
    145 C13          3.3034   -2.2796   -0.2829 C_3     888 RES        -0.13182
    146 H14          2.3279   -2.0838    0.1736 H_      888 RES         0.12220
    147 H15          3.4966   -3.3525   -0.1772 H_      888 RES         0.03100
    148 H16          3.2228   -2.0476   -1.3503 H_      888 RES         0.11849
    149 C17          5.7734   -2.0100    0.0135 C_3     888 RES        -0.19547
    150 H18          4.2770   -1.5096    1.4755 H_      888 RES         0.18067
    151 H19          5.8601   -3.0658    0.2901 H_      888 RES         0.05120
    152 H20          6.5696   -1.4608    0.5279 H_      888 RES         0.07281
    153 H21          5.9557   -1.9219   -1.0638 H_      888 RES         0.09493
    154 C1           3.3572    3.0677   -0.0479 C_3     888 RES        -0.15019
    155 C2           4.5992    2.2011   -0.1552 C_3     888 RES        -0.02595
    156 H3           2.4623    2.5461   -0.4020 H_      888 RES         0.11105
    157 H5           3.1843    3.3674    0.9909 H_      888 RES         0.07747
    158 C6           4.3647    0.7652    0.2801 C_2     888 RES         0.23416
    159 H8           4.9405    2.1903   -1.1968 H_      888 RES         0.09374
    160 O9           3.3292    0.3719    0.8001 O_2     888 RES        -0.28952
    161 N10          5.4552   -0.0408    0.0181 N_2     888 RES        -0.63939
    162 C11          5.5206   -1.4511    0.3876 C_3     888 RES        -0.03267
    163 H12          6.3251    0.4244   -0.2075 H_      888 RES         0.24993
    164 C13          4.4233   -2.2796   -0.2829 C_3     888 RES        -0.13182
    165 H14          3.4479   -2.0838    0.1736 H_      888 RES         0.12220
    166 H15          4.6166   -3.3525   -0.1772 H_      888 RES         0.03100
    167 H16          4.3427   -2.0476   -1.3503 H_      888 RES         0.11849
    168 C17          6.8933   -2.0100    0.0135 C_3     888 RES        -0.19547
    169 H18          5.3970   -1.5096    1.4755 H_      888 RES         0.18067
    170 H19          6.9800   -3.0658    0.2901 H_      888 RES         0.05120
    171 H20          7.6896   -1.4608    0.5279 H_      888 RES         0.07281
    172 H21          7.0756   -1.9219   -1.0638 H_      888 RES         0.09493
    173 C1           4.4771    3.0677   -0.0479 C_3     888 RES        -0.15019
    174 C2           5.7192    2.2011   -0.1552 C_3     888 RES        -0.02595
    175 H3           3.5823    2.5461   -0.4020 H_      888 RES         0.11105
    176 H5           4.3043    3.3674    0.9909 H_      888 RES         0.07747
    177 C6           5.4847    0.7652    0.2801 C_2     888 RES         0.23416
    178 H8           6.0605    2.1903   -1.1968 H_      888 RES         0.09374
    179 O9           4.4491    0.3719    0.8001 O_2     888 RES        -0.28952
    180 N10          6.5751   -0.0408    0.0181 N_2     888 RES        -0.63939
    181 C11          6.6406   -1.4511    0.3876 C_3     888 RES        -0.03267
    182 H12          7.4451    0.4244   -0.2075 H_      888 RES         0.24993
    183 C13          5.5433   -2.2796   -0.2829 C_3     888 RES        -0.13182
    184 H14          4.5678   -2.0838    0.1736 H_      888 RES         0.12220
    185 H15          5.7366   -3.3525   -0.1772 H_      888 RES         0.03100
    186 H16          5.4627   -2.0476   -1.3503 H_      888 RES         0.11849
    187 C17          8.0133   -2.0100    0.0135 C_3     888 RES        -0.19547
    188 H18          6.5169   -1.5096    1.4755 H_      888 RES         0.18067
    189 H19          8.1000   -3.0658    0.2901 H_      888 RES         0.05120
    190 H20          8.8095   -1.4608    0.5279 H_      888 RES         0.07281
    191 H21          8.1956   -1.9219   -1.0638 H_      888 RES         0.09493
    192 C1           5.5971    3.0677   -0.0479 C_3     888 RES        -0.15019
    193 C2           6.8392    2.2011   -0.1552 C_3     888 RES        -0.02595
    194 H3           4.7023    2.5461   -0.4020 H_      888 RES         0.11105
    195 H5           5.4242    3.3674    0.9909 H_      888 RES         0.07747
    196 C6           6.6046    0.7652    0.2801 C_2     888 RES         0.23416
    197 H8           7.1805    2.1903   -1.1968 H_      888 RES         0.09374
    198 O9           5.5691    0.3719    0.8001 O_2     888 RES        -0.28952
    199 N10          7.6951   -0.0408    0.0181 N_2     888 RES        -0.63939
    200 C11          7.7605   -1.4511    0.3876 C_3     888 RES        -0.03267
    201 H12          8.5650    0.4244   -0.2075 H_      888 RES         0.24993
    202 C13          6.6632   -2.2796   -0.2829 C_3     888 RES        -0.13182
    203 H14          5.6878   -2.0838    0.1736 H_      888 RES         0.12220
    204 H15          6.8565   -3.3525   -0.1772 H_      888 RES         0.03100
    205 H16          6.5826   -2.0476   -1.3503 H_      888 RES         0.11849
    206 C17          9.1333   -2.0100    0.0135 C_3     888 RES        -0.19547
    207 H18          7.6369   -1.5096    1.4755 H_      888 RES         0.18067
    208 H19          9.2199   -3.0658    0.2901 H_      888 RES         0.05120
    209 H20          9.9295   -1.4608    0.5279 H_      888 RES         0.07281
    210 H21          9.3156   -1.9219   -1.0638 H_      888 RES         0.09493
    211 C1           6.7170    3.0677   -0.0479 C_3     888 RES        -0.15019
    212 C2           7.9591    2.2011   -0.1552 C_3     888 RES        -0.02595
    213 H3           5.8222    2.5461   -0.4020 H_      888 RES         0.11105
    214 H5           6.5442    3.3674    0.9909 H_      888 RES         0.07747
    215 C6           7.7246    0.7652    0.2801 C_2     888 RES         0.23416
    216 H8           8.3004    2.1903   -1.1968 H_      888 RES         0.09374
    217 O9           6.6890    0.3719    0.8001 O_2     888 RES        -0.28952
    218 N10          8.8151   -0.0408    0.0181 N_2     888 RES        -0.63939
    219 C11          8.8805   -1.4511    0.3876 C_3     888 RES        -0.03267
    220 H12          9.6850    0.4244   -0.2075 H_      888 RES         0.24993
    221 C13          7.7832   -2.2796   -0.2829 C_3     888 RES        -0.13182
    222 H14          6.8078   -2.0838    0.1736 H_      888 RES         0.12220
    223 H15          7.9765   -3.3525   -0.1772 H_      888 RES         0.03100
    224 H16          7.7026   -2.0476   -1.3503 H_      888 RES         0.11849
    225 C17         10.2532   -2.0100    0.0135 C_3     888 RES        -0.19547
    226 H18          8.7569   -1.5096    1.4755 H_      888 RES         0.18067
    227 H19         10.3399   -3.0658    0.2901 H_      888 RES         0.05120
    228 H20         11.0495   -1.4608    0.5279 H_      888 RES         0.07281
    229 H21         10.4355   -1.9219   -1.0638 H_      888 RES         0.09493
    230 C1           7.8370    3.0677   -0.0479 C_3     888 RES        -0.15019
    231 C2           9.0791    2.2011   -0.1552 C_3     888 RES        -0.02595
    232 H3           6.9422    2.5461   -0.4020 H_      888 RES         0.11105
    233 H5           7.6641    3.3674    0.9909 H_      888 RES         0.07747
    234 C6           8.8446    0.7652    0.2801 C_2     888 RES         0.23416
    235 H8           9.4204    2.1903   -1.1968 H_      888 RES         0.09374
    236 O9           7.8090    0.3719    0.8001 O_2     888 RES        -0.28952
    237 N10          9.9350   -0.0408    0.0181 N_2     888 RES        -0.63939
    238 C11         10.0004   -1.4511    0.3876 C_3     888 RES        -0.03267
    239 H12         10.8050    0.4244   -0.2075 H_      888 RES         0.24993
    240 C13          8.9032   -2.2796   -0.2829 C_3     888 RES        -0.13182
    241 H14          7.9277   -2.0838    0.1736 H_      888 RES         0.12220
    242 H15          9.0964   -3.3525   -0.1772 H_      888 RES         0.03100
    243 H16          8.8226   -2.0476   -1.3503 H_      888 RES         0.11849
    244 C17         11.3732   -2.0100    0.0135 C_3     888 RES        -0.19547
    245 H18          9.8768   -1.5096    1.4755 H_      888 RES         0.18067
    246 H19         11.4599   -3.0658    0.2901 H_      888 RES         0.05120
    247 H20         12.1694   -1.4608    0.5279 H_      888 RES         0.07281
    248 H21         11.5555   -1.9219   -1.0638 H_      888 RES         0.09493
    249 C1           8.9570    3.0677   -0.0479 C_3     888 RES        -0.15019
    250 C2          10.1990    2.2011   -0.1552 C_3     888 RES        -0.02595
    251 H3           8.0621    2.5461   -0.4020 H_      888 RES         0.11105
    252 H5           8.7841    3.3674    0.9909 H_      888 RES         0.07747
    253 C6           9.9645    0.7652    0.2801 C_2     888 RES         0.23416
    254 H8          10.5403    2.1903   -1.1968 H_      888 RES         0.09374
    255 O9           8.9290    0.3719    0.8001 O_2     888 RES        -0.28952
    256 N10         11.0550   -0.0408    0.0181 N_2     888 RES        -0.63939
    257 C11         11.1204   -1.4511    0.3876 C_3     888 RES        -0.03267
    258 H12         11.9249    0.4244   -0.2075 H_      888 RES         0.24993
    259 C13         10.0231   -2.2796   -0.2829 C_3     888 RES        -0.13182
    260 H14          9.0477   -2.0838    0.1736 H_      888 RES         0.12220
    261 H15         10.2164   -3.3525   -0.1772 H_      888 RES         0.03100
    262 H16          9.9425   -2.0476   -1.3503 H_      888 RES         0.11849
    263 C17         12.4931   -2.0100    0.0135 C_3     888 RES        -0.19547
    264 H18         10.9968   -1.5096    1.4755 H_      888 RES         0.18067
    265 H19         12.5798   -3.0658    0.2901 H_      888 RES         0.05120
    266 H20         13.2894   -1.4608    0.5279 H_      888 RES         0.07281
    267 H21         12.6754   -1.9219   -1.0638 H_      888 RES         0.09493
    268 C1          10.0769    3.0677   -0.0479 C_3     888 RES        -0.15019
    269 C2          11.3190    2.2011   -0.1552 C_3     888 RES        -0.05332
    270 H3           9.1821    2.5461   -0.4020 H_      888 RES         0.11105
    271 H5           9.9041    3.3674    0.9909 H_      888 RES         0.07747
    272 C6          11.0845    0.7652    0.2801 C_2     888 RES         0.23416
    273 H8          11.6603    2.1903   -1.1968 H_      888 RES         0.09374
    274 O9          10.0489    0.3719    0.8001 O_2     888 RES        -0.28952
    275 N10         12.1749   -0.0408    0.0181 N_2     888 RES        -0.63939
    276 C11         12.2404   -1.4511    0.3876 C_3     888 RES        -0.03267
    277 H12         13.0449    0.4244   -0.2075 H_      888 RES         0.24993
    278 C13         11.1431   -2.2796   -0.2829 C_3     888 RES        -0.13182
    279 H14         10.1676   -2.0838    0.1736 H_      888 RES         0.12220
    280 H15         11.3364   -3.3525   -0.1772 H_      888 RES         0.03100
    281 H16         11.0625   -2.0476   -1.3503 H_      888 RES         0.11849
    282 C17         13.6131   -2.0100    0.0135 C_3     888 RES        -0.19547
    283 H18         12.1167   -1.5096    1.4755 H_      888 RES         0.18067
    284 H19         13.6998   -3.0658    0.2901 H_      888 RES         0.05120
    285 H20         14.4093   -1.4608    0.5279 H_      888 RES         0.07281
    286 H21         13.7954   -1.9219   -1.0638 H_      888 RES         0.09493
    287 H7          12.1187    2.6259    0.4620 H_     1332 RES         0.07508
@<TRIPOS>BOND
     1    1    2 1    
     2    2    3 1    
     3    2    4 1    
     4    2    5 1    
     5    3    6 1    
     6    3    7 1    
     7    3   21 1    
     8    6    8 2    
     9    6    9 1    
    10    9   10 1    
    11    9   11 1    
    12   10   12 1    
    13   10   16 1    
    14   10   17 1    
    15   12   13 1    
    16   12   14 1    
    17   12   15 1    
    18   16   18 1    
    19   16   19 1    
    20   16   20 1    
    21   21   22 1    
    22   21   23 1    
    23   21   24 1    
    24   22   25 1    
    25   22   26 1    
    26   22   40 1    
    27   25   27 2    
    28   25   28 1    
    29   28   29 1    
    30   28   30 1    
    31   29   31 1    
    32   29   35 1    
    33   29   36 1    
    34   31   32 1    
    35   31   33 1    
    36   31   34 1    
    37   35   37 1    
    38   35   38 1    
    39   35   39 1    
    40   40   41 1    
    41   40   42 1    
    42   40   43 1    
    43   41   44 1    
    44   41   45 1    
    45   41   59 1    
    46   44   46 2    
    47   44   47 1    
    48   47   48 1    
    49   47   49 1    
    50   48   50 1    
    51   48   54 1    
    52   48   55 1    
    53   50   51 1    
    54   50   52 1    
    55   50   53 1    
    56   54   56 1    
    57   54   57 1    
    58   54   58 1    
    59   59   60 1    
    60   59   61 1    
    61   59   62 1    
    62   60   63 1    
    63   60   64 1    
    64   60   78 1    
    65   63   65 2    
    66   63   66 1    
    67   66   67 1    
    68   66   68 1    
    69   67   69 1    
    70   67   73 1    
    71   67   74 1    
    72   69   70 1    
    73   69   71 1    
    74   69   72 1    
    75   73   75 1    
    76   73   76 1    
    77   73   77 1    
    78   78   79 1    
    79   78   80 1    
    80   78   81 1    
    81   79   82 1    
    82   79   83 1    
    83   79   97 1    
    84   82   84 2    
    85   82   85 1    
    86   85   86 1    
    87   85   87 1    
    88   86   88 1    
    89   86   92 1    
    90   86   93 1    
    91   88   89 1    
    92   88   90 1    
    93   88   91 1    
    94   92   94 1    
    95   92   95 1    
    96   92   96 1    
    97   97   98 1    
    98   97   99 1    
    99   97  100 1    
   100   98  101 1    
   101   98  102 1    
   102   98  116 1    
   103  101  103 2    
   104  101  104 1    
   105  104  105 1    
   106  104  106 1    
   107  105  107 1    
   108  105  111 1    
   109  105  112 1    
   110  107  108 1    
   111  107  109 1    
   112  107  110 1    
   113  111  113 1    
   114  111  114 1    
   115  111  115 1    
   116  116  117 1    
   117  116  118 1    
   118  116  119 1    
   119  117  120 1    
   120  117  121 1    
   121  117  135 1    
   122  120  122 2    
   123  120  123 1    
   124  123  124 1    
   125  123  125 1    
   126  124  126 1    
   127  124  130 1    
   128  124  131 1    
   129  126  127 1    
   130  126  128 1    
   131  126  129 1    
   132  130  132 1    
   133  130  133 1    
   134  130  134 1    
   135  135  136 1    
   136  135  137 1    
   137  135  138 1    
   138  136  139 1    
   139  136  140 1    
   140  136  154 1    
   141  139  141 2    
   142  139  142 1    
   143  142  143 1    
   144  142  144 1    
   145  143  145 1    
   146  143  149 1    
   147  143  150 1    
   148  145  146 1    
   149  145  147 1    
   150  145  148 1    
   151  149  151 1    
   152  149  152 1    
   153  149  153 1    
   154  154  155 1    
   155  154  156 1    
   156  154  157 1    
   157  155  158 1    
   158  155  159 1    
   159  155  173 1    
   160  158  160 2    
   161  158  161 1    
   162  161  162 1    
   163  161  163 1    
   164  162  164 1    
   165  162  168 1    
   166  162  169 1    
   167  164  165 1    
   168  164  166 1    
   169  164  167 1    
   170  168  170 1    
   171  168  171 1    
   172  168  172 1    
   173  173  174 1    
   174  173  175 1    
   175  173  176 1    
   176  174  177 1    
   177  174  178 1    
   178  174  192 1    
   179  177  179 2    
   180  177  180 1    
   181  180  181 1    
   182  180  182 1    
   183  181  183 1    
   184  181  187 1    
   185  181  188 1    
   186  183  184 1    
   187  183  185 1    
   188  183  186 1    
   189  187  189 1    
   190  187  190 1    
   191  187  191 1    
   192  192  193 1    
   193  192  194 1    
   194  192  195 1    
   195  193  196 1    
   196  193  197 1    
   197  193  211 1    
   198  196  198 2    
   199  196  199 1    
   200  199  200 1    
   201  199  201 1    
   202  200  202 1    
   203  200  206 1    
   204  200  207 1    
   205  202  203 1    
   206  202  204 1    
   207  202  205 1    
   208  206  208 1    
   209  206  209 1    
   210  206  210 1    
   211  211  212 1    
   212  211  213 1    
   213  211  214 1    
   214  212  215 1    
   215  212  216 1    
   216  212  230 1    
   217  215  217 2    
   218  215  218 1    
   219  218  219 1    
   220  218  220 1    
   221  219  221 1    
   222  219  225 1    
   223  219  226 1    
   224  221  222 1    
   225  221  223 1    
   226  221  224 1    
   227  225  227 1    
   228  225  228 1    
   229  225  229 1    
   230  230  231 1    
   231  230  232 1    
   232  230  233 1    
   233  231  234 1    
   234  231  235 1    
   235  231  249 1    
   236  234  236 2    
   237  234  237 1    
   238  237  238 1    
   239  237  239 1    
   240  238  240 1    
   241  238  244 1    
   242  238  245 1    
   243  240  241 1    
   244  240  242 1    
   245  240  243 1    
   246  244  246 1    
   247  244  247 1    
   248  244  248 1    
   249  249  250 1    
   250  249  251 1    
   251  249  252 1    
   252  250  253 1    
   253  250  254 1    
   254  250  268 1    
   255  253  255 2    
   256  253  256 1    
   257  256  257 1    
   258  256  258 1    
   259  257  259 1    
   260  257  263 1    
   261  257  264 1    
   262  259  260 1    
   263  259  261 1    
   264  259  262 1    
   265  263  265 1    
   266  263  266 1    
   267  263  267 1    
   268  268  269 1    
   269  268  270 1    
   270  268  271 1    
   271  269  272 1    
   272  269  273 1    
   273  269  287 1    
   274  272  274 2    
   275  272  275 1    
   276  275  276 1    
   277  275  277 1    
   278  276  278 1    
   279  276  282 1    
   280  276  283 1    
   281  278  279 1    
   282  278  280 1    
   283  278  281 1    
   284  282  284 1    
   285  282  285 1    
   286  282  286 1    
@<TRIPOS>SUBSTRUCTURE
      1  RES              1 ****               0 ****  ****
      2  RES              2 ****               0 ****  ****
      3  RES            287 ****               0 ****  ****
