@<TRIPOS>MOLECULE
*****
 21 20 0 0 0
SMALL
GASTEIGER

@<TRIPOS>ATOM
      1 C          -5.6025    3.0677   -0.0479 C.3     1  UNL1       -0.0586
      2 C          -4.3604    2.2011   -0.1552 C.3     1  UNL1        0.0013
      3 H          -6.4973    2.5461   -0.4020 H       1  UNL1        0.0234
      4 H          -5.4804    3.9778   -0.6441 H       1  UNL1        0.0234
      5 H          -5.7754    3.3674    0.9909 H       1  UNL1        0.0234
      6 C          -4.5949    0.7652    0.2801 C.2     1  UNL1        0.1187
      7 H          -3.5607    2.6259    0.4620 H       1  UNL1        0.0338
      8 H          -4.0191    2.1903   -1.1968 H       1  UNL1        0.0338
      9 O          -5.6305    0.3719    0.8001 O.2     1  UNL1       -0.2992
     10 N          -3.5045   -0.0408    0.0181 N.4     1  UNL1        0.3817
     11 C          -3.4391   -1.4511    0.3876 C.3     1  UNL1       -0.0244
     12 H          -2.6346    0.4245   -0.2075 H       1  UNL1        0.0159
     13 C          -4.5363   -2.2796   -0.2829 C.3     1  UNL1       -0.1027
     14 H          -5.5118   -2.0838    0.1736 H       1  UNL1        0.0024
     15 H          -4.3431   -3.3525   -0.1772 H       1  UNL1        0.0024
     16 H          -4.6169   -2.0475   -1.3503 H       1  UNL1        0.0024
     17 C          -2.0663   -2.0100    0.0135 C.3     1  UNL1       -0.1027
     18 H          -3.5627   -1.5096    1.4755 H       1  UNL1       -0.0817
     19 H          -1.9796   -3.0658    0.2901 H       1  UNL1        0.0024
     20 H          -1.2701   -1.4608    0.5278 H       1  UNL1        0.0024
     21 H          -1.8840   -1.9219   -1.0638 H       1  UNL1        0.0024
@<TRIPOS>BOND
     1     1     2    1
     2     1     3    1
     3     1     4    1
     4     1     5    1
     5     2     6    1
     6     2     7    1
     7     2     8    1
     8     6     9    2
     9    11     6    1
    10    11    10    1
    11    11    12    1
    12    10    13    1
    13    13    14    1
    14    13    15    1
    15    13    16    1
    16    10    17    1
    17    10    18    1
    18    17    19    1
    19    17    20    1
    20    17    21    1
